TRIM21-x0266_B_302_1_TRIM21-x0176+B+302+1__LIG
     RDKit          3D

 13 14  0  0  0  0  0  0  0  0999 V2000
  -29.5840  -30.1110  -20.8670 C   0  0  0  0  0  0  0  0  0  0  0  0
  -28.6230  -29.3290  -21.5740 O   0  0  0  0  0  0  0  0  0  0  0  0
  -28.6490  -29.3050  -22.9460 C   0  0  0  0  0  0  0  0  0  0  0  0
  -29.6580  -29.8730  -23.7180 C   0  0  0  0  0  0  0  0  0  0  0  0
  -29.5960  -29.8030  -25.0900 C   0  0  0  0  0  0  0  0  0  0  0  0
  -28.5500  -29.1640  -25.7120 C   0  0  0  0  0  0  0  0  0  0  0  0
  -27.5420  -28.5940  -24.9670 C   0  0  0  0  0  0  0  0  0  0  0  0
  -27.5630  -28.6680  -23.5740 C   0  0  0  0  0  0  0  0  0  0  0  0
  -26.4900  -28.0260  -22.8220 C   0  0  0  0  0  0  0  0  0  0  0  0
  -25.6670  -27.0980  -23.1620 N   0  0  0  0  0  0  0  0  0  0  0  0
  -24.8870  -26.8320  -22.0090 N   0  0  0  0  0  0  0  0  0  0  0  0
  -25.2560  -27.6170  -21.0870 C   0  0  0  0  0  0  0  0  0  0  0  0
  -26.2760  -28.3900  -21.5220 O   0  0  0  0  0  0  0  0  0  0  0  0
  1  2  1  0
  2  3  1  0
  3  4  2  0
  4  5  1  0
  5  6  2  0
  6  7  1  0
  7  8  2  0
  8  9  1  0
  9 10  2  0
 10 11  1  0
 11 12  2  0
 12 13  1  0
  3  8  1  0
  9 13  1  0
M  END
$$$$
