TRIM21-x0770_B_302_1_TRIM21-x0031+B+401+1__LIG
     RDKit          3D

 15 16  0  0  0  0  0  0  0  0999 V2000
  -44.2750   -3.3010  -23.1260 O   0  0  0  0  0  0  0  0  0  0  0  0
  -45.1860   -3.3990  -23.9300 C   0  0  0  0  0  0  0  0  0  0  0  0
  -44.9260   -3.7420  -25.3650 C   0  0  0  0  0  0  0  0  0  0  0  0
  -45.9930   -4.5450  -26.0040 N   0  0  0  0  0  0  0  0  0  0  0  0
  -45.8000   -4.6390  -27.4670 C   0  0  0  0  0  0  0  0  0  0  0  0
  -44.8650   -5.7360  -27.9140 C   0  0  0  0  0  0  0  0  0  0  0  0
  -45.3340   -7.0210  -28.1300 C   0  0  0  0  0  0  0  0  0  0  0  0
  -44.4730   -8.0300  -28.5390 C   0  0  0  0  0  0  0  0  0  0  0  0
  -43.1390   -7.7570  -28.7440 C   0  0  0  0  0  0  0  0  0  0  0  0
  -42.6600   -6.4830  -28.5380 C   0  0  0  0  0  0  0  0  0  0  0  0
  -43.5220   -5.4740  -28.1370 C   0  0  0  0  0  0  0  0  0  0  0  0
  -47.3360   -4.0010  -25.7250 C   0  0  0  0  0  0  0  0  0  0  0  0
  -47.5740   -3.6630  -24.2920 C   0  0  0  0  0  0  0  0  0  0  0  0
  -48.6840   -3.7780  -23.8080 O   0  0  0  0  0  0  0  0  0  0  0  0
  -46.4980   -3.1970  -23.5740 N   0  0  0  0  0  0  0  0  0  0  0  0
  1  2  2  0
  2  3  1  0
  3  4  1  0
  4  5  1  0
  5  6  1  0
  6  7  2  0
  7  8  1  0
  8  9  2  0
  9 10  1  0
 10 11  2  0
  4 12  1  0
 12 13  1  0
 13 14  2  0
 13 15  1  0
  2 15  1  0
  6 11  1  0
M  END
$$$$
