TRIM21-x0046_B_302_1_TRIM21-x0046+B+302+1__LIG
     RDKit          3D

 18 20  0  0  0  0  0  0  0  0999 V2000
  -48.3850    4.2900  -23.8060 O   0  0  0  0  0  0  0  0  0  0  0  0
  -48.9760    4.1320  -25.0750 C   0  0  0  0  0  0  0  0  0  0  0  0
  -49.8160    5.3230  -25.5650 C   0  0  0  0  0  0  0  0  0  0  0  0
  -48.7770    5.5960  -26.5930 N   0  0  0  0  0  0  0  0  0  0  0  0
  -48.0170    4.3630  -26.2520 C   0  0  0  0  0  0  0  0  0  0  0  0
  -49.0840    5.8530  -28.0130 C   0  0  0  0  0  0  0  0  0  0  0  0
  -47.8620    6.4150  -28.7250 C   0  0  0  0  0  0  0  0  0  0  0  0
  -47.7210    6.2600  -30.0950 C   0  0  0  0  0  0  0  0  0  0  0  0
  -46.6080    6.7760  -30.7420 C   0  0  0  0  0  0  0  0  0  0  0  0
  -45.6450    7.4580  -30.0320 C   0  0  0  0  0  0  0  0  0  0  0  0
  -45.7800    7.6210  -28.6760 C   0  0  0  0  0  0  0  0  0  0  0  0
  -46.8810    7.0990  -28.0180 C   0  0  0  0  0  0  0  0  0  0  0  0
  -50.3250    6.7280  -28.1410 C   0  0  0  0  0  0  0  0  0  0  0  0
  -50.2190    8.1120  -28.1010 C   0  0  0  0  0  0  0  0  0  0  0  0
  -51.3500    8.9010  -28.2390 C   0  0  0  0  0  0  0  0  0  0  0  0
  -52.5880    8.3160  -28.3940 C   0  0  0  0  0  0  0  0  0  0  0  0
  -52.7030    6.9440  -28.4290 C   0  0  0  0  0  0  0  0  0  0  0  0
  -51.5720    6.1480  -28.3280 C   0  0  0  0  0  0  0  0  0  0  0  0
  1  2  1  0
  2  3  1  0
  3  4  1  0
  4  5  1  0
  4  6  1  0
  6  7  1  0
  7  8  2  0
  8  9  1  0
  9 10  2  0
 10 11  1  0
 11 12  2  0
  6 13  1  0
 13 14  2  0
 14 15  1  0
 15 16  2  0
 16 17  1  0
 17 18  2  0
  2  5  1  0
  7 12  1  0
 13 18  1  0
M  END
$$$$
