TRIM21-x0457_B_302_1_TRIM21-x0031+B+401+1__LIG
     RDKit          3D

 13 14  0  0  0  0  0  0  0  0999 V2000
  -45.1150   -5.4620  -29.9330 C   0  0  0  0  0  0  0  0  0  0  0  0
  -46.0200   -6.0600  -28.9600 N   0  0  0  0  0  0  0  0  0  0  0  0
  -46.3800   -5.4840  -27.7650 C   0  0  0  0  0  0  0  0  0  0  0  0
  -47.1460   -6.1920  -26.8150 C   0  0  0  0  0  0  0  0  0  0  0  0
  -47.4740   -5.5760  -25.6360 C   0  0  0  0  0  0  0  0  0  0  0  0
  -47.1060   -4.3320  -25.3050 N   0  0  0  0  0  0  0  0  0  0  0  0
  -46.3770   -3.6690  -26.2090 C   0  0  0  0  0  0  0  0  0  0  0  0
  -45.9830   -4.1770  -27.4190 C   0  0  0  0  0  0  0  0  0  0  0  0
  -43.6660   -5.8950  -29.7960 C   0  0  1  0  0  0  0  0  0  0  0  0
  -43.0150   -5.6760  -28.4470 C   0  0  0  0  0  0  0  0  0  0  0  0
  -42.2820   -6.9440  -28.1720 C   0  0  0  0  0  0  0  0  0  0  0  0
  -43.0890   -7.9350  -28.9090 C   0  0  0  0  0  0  0  0  0  0  0  0
  -43.5870   -7.2750  -30.0640 O   0  0  0  0  0  0  0  0  0  0  0  0
  1  2  1  0
  2  3  1  0
  3  4  2  0
  4  5  1  0
  5  6  2  0
  6  7  1  0
  7  8  2  0
  9  1  1  1
  9 10  1  0
 10 11  1  0
 11 12  1  0
 12 13  1  0
  3  8  1  0
  9 13  1  0
M  END
$$$$
