TRIM21-x0037_B_302_1_TRIM21-x0031+B+401+1__LIG
     RDKit          3D

 15 16  0  0  0  0  0  0  0  0999 V2000
  -50.5540   -7.7650  -26.7570 C   0  0  0  0  0  0  0  0  0  0  0  0
  -49.2640   -7.0090  -26.8140 C   0  0  0  0  0  0  0  0  0  0  0  0
  -48.7550   -6.2300  -27.8820 C   0  0  0  0  0  0  0  0  0  0  0  0
  -47.5780   -5.7530  -27.4490 C   0  0  0  0  0  0  0  0  0  0  0  0
  -46.5390   -4.9010  -28.0750 C   0  0  0  0  0  0  0  0  0  0  0  0
  -45.6290   -5.7590  -28.8460 N   0  0  0  0  0  0  0  0  0  0  0  0
  -44.3810   -5.8790  -28.3370 N   0  0  0  0  0  0  0  0  0  0  0  0
  -43.5070   -6.6280  -28.9360 C   0  0  0  0  0  0  0  0  0  0  0  0
  -42.1510   -6.7060  -28.3030 C   0  0  0  0  0  0  0  0  0  0  0  0
  -43.8120   -7.3210  -30.0940 C   0  0  0  0  0  0  0  0  0  0  0  0
  -45.0780   -7.2180  -30.6320 C   0  0  0  0  0  0  0  0  0  0  0  0
  -46.0580   -6.4070  -29.9960 C   0  0  0  0  0  0  0  0  0  0  0  0
  -47.2200   -6.2520  -30.4090 O   0  0  0  0  0  0  0  0  0  0  0  0
  -47.3410   -6.2110  -26.2010 O   0  0  0  0  0  0  0  0  0  0  0  0
  -48.4450   -7.0110  -25.8040 N   0  0  0  0  0  0  0  0  0  0  0  0
  1  2  1  0
  2  3  1  0
  3  4  2  0
  4  5  1  0
  5  6  1  0
  6  7  1  0
  7  8  2  0
  8  9  1  0
  8 10  1  0
 10 11  2  0
 11 12  1  0
 12 13  2  0
  4 14  1  0
 14 15  1  0
  2 15  2  0
  6 12  1  0
M  END
$$$$
