TRIM21-x0219_B_302_1_TRIM21-x0031+B+401+1__LIG
     RDKit          3D

 15 15  0  0  0  0  0  0  0  0999 V2000
  -42.2860   -5.8930  -27.9500 C   0  0  0  0  0  0  0  0  0  0  0  0
  -43.5070   -6.1980  -28.8200 C   0  0  0  0  0  0  0  0  0  0  0  0
  -43.4090   -6.9830  -29.7030 O   0  0  0  0  0  0  0  0  0  0  0  0
  -44.8030   -5.5860  -28.5730 N   0  0  0  0  0  0  0  0  0  0  0  0
  -46.0160   -5.8690  -29.4120 C   0  0  0  0  0  0  0  0  0  0  0  0
  -47.2970   -6.0840  -28.6120 C   0  0  0  0  0  0  0  0  0  0  0  0
  -47.5280   -5.0370  -27.5980 C   0  0  0  0  0  0  0  0  0  0  0  0
  -46.3610   -4.8320  -26.7060 C   0  0  2  0  0  0  0  0  0  0  0  0
  -46.6270   -3.6330  -25.7850 C   0  0  0  0  0  0  0  0  0  0  0  0
  -45.4220   -3.0390  -25.1910 N   0  0  0  0  0  0  0  0  0  0  0  0
  -45.2320   -2.9190  -23.4960 S   0  0  0  0  0  0  0  0  0  0  0  0
  -44.0180   -2.1930  -23.1240 O   0  0  0  0  0  0  0  0  0  0  0  0
  -46.3190   -2.1590  -22.8540 O   0  0  0  0  0  0  0  0  0  0  0  0
  -45.1660   -4.5190  -22.7130 C   0  0  0  0  0  0  0  0  0  0  0  0
  -45.1010   -4.5690  -27.5110 C   0  0  0  0  0  0  0  0  0  0  0  0
  2  1  1  0
  3  2  2  0
  4  2  1  0
  5  4  1  0
  6  5  1  0
  7  6  1  0
  8  7  1  0
 10  9  1  0
 11 10  1  0
 12 11  2  0
 13 11  2  0
 14 11  1  0
  8  9  1  1
 15  8  1  0
  4 15  1  0
M  END
$$$$
