TRIM21-x0641_B_201_1_TRIM21-x0031+B+401+1__LIG
     RDKit          3D

 15 16  0  0  0  0  0  0  0  0999 V2000
  -43.3500   -8.0160  -28.8750 C   0  0  0  0  0  0  0  0  0  0  0  0
  -44.4960   -7.0440  -28.6570 C   0  0  0  0  0  0  0  0  0  0  0  0
  -44.1310   -5.9900  -27.6850 C   0  0  0  0  0  0  0  0  0  0  0  0
  -44.8110   -4.9840  -27.2310 N   0  0  0  0  0  0  0  0  0  0  0  0
  -44.0090   -4.3390  -26.3330 C   0  0  0  0  0  0  0  0  0  0  0  0
  -44.2910   -3.0990  -25.5510 C   0  0  0  0  0  0  0  0  0  0  0  0
  -45.4410   -3.1800  -24.6410 N   0  0  0  0  0  0  0  0  0  0  0  0
  -46.6840   -2.8890  -25.1160 C   0  0  0  0  0  0  0  0  0  0  0  0
  -47.7740   -2.9550  -24.3290 C   0  0  0  0  0  0  0  0  0  0  0  0
  -47.6220   -3.3070  -22.9810 C   0  0  0  0  0  0  0  0  0  0  0  0
  -46.3980   -3.5960  -22.4890 C   0  0  0  0  0  0  0  0  0  0  0  0
  -45.2320   -3.5380  -23.3050 C   0  0  0  0  0  0  0  0  0  0  0  0
  -44.0800   -3.7790  -22.9190 O   0  0  0  0  0  0  0  0  0  0  0  0
  -42.8770   -4.9380  -26.2420 N   0  0  0  0  0  0  0  0  0  0  0  0
  -42.9240   -6.0440  -27.1200 O   0  0  0  0  0  0  0  0  0  0  0  0
  1  2  1  0
  2  3  1  0
  3  4  2  0
  4  5  1  0
  5  6  1  0
  6  7  1  0
  7  8  1  0
  8  9  2  0
  9 10  1  0
 10 11  2  0
 11 12  1  0
 12 13  2  0
  5 14  2  0
 14 15  1  0
  3 15  1  0
  7 12  1  0
M  END
$$$$
