TRIM21-x0407_B_302_1_TRIM21-x0043+B+302+1__LIG
     RDKit          3D

 17 18  0  0  0  0  0  0  0  0999 V2000
  -41.4080  -17.9600  -23.5760 N   0  0  0  0  0  0  0  0  0  0  0  0
  -41.1850  -16.6510  -23.2160 C   0  0  0  0  0  0  0  0  0  0  0  0
  -42.1810  -15.9060  -22.5710 C   0  0  0  0  0  0  0  0  0  0  0  0
  -41.9580  -14.5930  -22.2070 C   0  0  0  0  0  0  0  0  0  0  0  0
  -40.7240  -14.0030  -22.4680 C   0  0  0  0  0  0  0  0  0  0  0  0
  -39.7180  -14.7350  -23.0870 C   0  0  0  0  0  0  0  0  0  0  0  0
  -39.9460  -16.0450  -23.4590 C   0  0  0  0  0  0  0  0  0  0  0  0
  -40.4240  -12.3340  -21.9980 S   0  0  0  0  0  0  0  0  0  0  0  0
  -41.5670  -11.8780  -21.2660 O   0  0  0  0  0  0  0  0  0  0  0  0
  -39.9830  -11.6050  -23.1440 O   0  0  0  0  0  0  0  0  0  0  0  0
  -39.1950  -12.3460  -20.9300 N   0  0  0  0  0  0  0  0  0  0  0  0
  -39.1360  -13.1890  -19.8800 C   0  0  0  0  0  0  0  0  0  0  0  0
  -37.9340  -13.3990  -19.2400 C   0  0  0  0  0  0  0  0  0  0  0  0
  -37.8970  -14.2670  -18.1770 C   0  0  0  0  0  0  0  0  0  0  0  0
  -39.0530  -14.8850  -17.7570 C   0  0  0  0  0  0  0  0  0  0  0  0
  -40.2160  -14.5940  -18.4280 C   0  0  0  0  0  0  0  0  0  0  0  0
  -40.2770  -13.7580  -19.4780 N   0  0  0  0  0  0  0  0  0  0  0  0
  1  2  1  0
  2  3  2  0
  3  4  1  0
  4  5  2  0
  5  6  1  0
  6  7  2  0
  5  8  1  0
  8  9  2  0
  8 10  2  0
  8 11  1  0
 11 12  1  0
 12 13  2  0
 13 14  1  0
 14 15  2  0
 15 16  1  0
 16 17  2  0
  2  7  1  0
 12 17  1  0
M  END
$$$$
