TRIM21-x0243_B_201_1_TRIM21-x0031+B+401+1__LIG
     RDKit          3D

 14 14  0  0  0  0  0  0  0  0999 V2000
  -42.5810   -6.7740  -27.7770 C   0  0  0  0  0  0  0  0  0  0  0  0
  -43.8720   -7.3340  -28.2400 C   0  0  0  0  0  0  0  0  0  0  0  0
  -44.8970   -6.3040  -28.1400 O   0  0  0  0  0  0  0  0  0  0  0  0
  -45.8430   -6.4560  -27.2110 C   0  0  0  0  0  0  0  0  0  0  0  0
  -46.0840   -7.4660  -26.6160 O   0  0  0  0  0  0  0  0  0  0  0  0
  -46.6110   -5.1650  -27.0540 C   0  0  0  0  0  0  0  0  0  0  0  0
  -46.3410   -4.3630  -25.8590 N   0  0  0  0  0  0  0  0  0  0  0  0
  -45.0490   -3.6770  -25.9310 C   0  0  0  0  0  0  0  0  0  0  0  0
  -44.9820   -2.5390  -24.9290 C   0  0  0  0  0  0  0  0  0  0  0  0
  -45.1280   -3.1620  -23.2630 S   0  0  0  0  0  0  0  0  0  0  0  0
  -45.4190   -2.0660  -22.3800 O   0  0  0  0  0  0  0  0  0  0  0  0
  -43.9870   -3.9680  -22.9530 O   0  0  0  0  0  0  0  0  0  0  0  0
  -46.5560   -4.2040  -23.4160 C   0  0  0  0  0  0  0  0  0  0  0  0
  -46.4180   -5.1330  -24.6130 C   0  0  0  0  0  0  0  0  0  0  0  0
  1  2  1  0
  2  3  1  0
  3  4  1  0
  4  5  2  0
  4  6  1  0
  6  7  1  0
  7  8  1  0
  8  9  1  0
  9 10  1  0
 10 11  2  0
 10 12  2  0
 10 13  1  0
 13 14  1  0
  7 14  1  0
M  END
$$$$
