TRIM21-x0401_B_201_1_TRIM21-x0031+B+401+1__LIG
     RDKit          3D

 14 15  0  0  0  0  0  0  0  0999 V2000
  -45.6850   -9.0250  -30.5100 C   0  0  0  0  0  0  0  0  0  0  0  0
  -45.0370   -7.9160  -29.7960 N   0  0  0  0  0  0  0  0  0  0  0  0
  -43.5790   -7.8380  -29.7100 C   0  0  0  0  0  0  0  0  0  0  0  0
  -45.8720   -6.8890  -29.1880 C   0  0  0  0  0  0  0  0  0  0  0  0
  -47.0720   -6.5320  -29.6010 N   0  0  0  0  0  0  0  0  0  0  0  0
  -47.5240   -5.5560  -28.7710 O   0  0  0  0  0  0  0  0  0  0  0  0
  -46.6240   -5.3330  -27.8640 C   0  0  0  0  0  0  0  0  0  0  0  0
  -45.5680   -6.1370  -28.1010 N   0  0  0  0  0  0  0  0  0  0  0  0
  -46.7550   -4.3030  -26.7340 C   0  0  0  0  0  0  0  0  0  0  0  0
  -47.2990   -4.9970  -25.5390 C   0  0  0  0  0  0  0  0  0  0  0  0
  -47.4640   -4.0430  -24.3640 C   0  0  0  0  0  0  0  0  0  0  0  0
  -46.2500   -3.2140  -24.0760 N   0  0  0  0  0  0  0  0  0  0  0  0
  -45.5670   -2.6690  -25.2970 C   0  0  0  0  0  0  0  0  0  0  0  0
  -45.4270   -3.7040  -26.3960 C   0  0  0  0  0  0  0  0  0  0  0  0
  2  1  1  0
  3  2  1  0
  4  2  1  0
  5  4  2  0
  6  5  1  0
  7  6  1  0
  8  7  2  0
  9  7  1  0
 10  9  1  0
 11 10  1  0
 12 11  1  0
 13 12  1  0
 14 13  1  0
  4  8  1  0
  9 14  1  0
M  END
$$$$
