TRIM21-x0269_B_302_1_TRIM21-x0031+B+401+1__LIG
     RDKit          3D

 13 13  0  0  0  0  0  0  0  0999 V2000
  -46.7420   -4.5200  -26.5450 C   0  0  0  0  0  0  0  0  0  0  0  0
  -45.4480   -4.7610  -25.7690 C   0  0  2  0  0  0  0  0  0  0  0  0
  -44.8550   -3.4290  -25.2700 C   0  0  0  0  0  0  0  0  0  0  0  0
  -44.7340   -3.3500  -23.4980 S   0  0  0  0  0  0  0  0  0  0  0  0
  -43.8230   -4.3710  -23.0870 O   0  0  0  0  0  0  0  0  0  0  0  0
  -46.0600   -3.3310  -22.9630 O   0  0  0  0  0  0  0  0  0  0  0  0
  -44.0560   -1.9500  -23.1470 N   0  0  0  0  0  0  0  0  0  0  0  0
  -44.4740   -5.5970  -26.5840 C   0  0  0  0  0  0  0  0  0  0  0  0
  -44.4100   -6.9750  -26.4000 C   0  0  0  0  0  0  0  0  0  0  0  0
  -43.5310   -7.7480  -27.1470 C   0  0  0  0  0  0  0  0  0  0  0  0
  -42.7230   -7.1640  -28.0950 C   0  0  0  0  0  0  0  0  0  0  0  0
  -42.7750   -5.8060  -28.2940 C   0  0  0  0  0  0  0  0  0  0  0  0
  -43.6470   -5.0230  -27.5500 C   0  0  0  0  0  0  0  0  0  0  0  0
  2  1  1  6
  2  3  1  0
  3  4  1  0
  4  5  2  0
  4  6  2  0
  4  7  1  0
  2  8  1  0
  8  9  2  0
  9 10  1  0
 10 11  2  0
 11 12  1  0
 12 13  2  0
  8 13  1  0
M  END
$$$$
