TRIM21-x0744_B_302_1_TRIM21-x0031+B+401+1__LIG
     RDKit          3D

 14 14  0  0  0  0  0  0  0  0999 V2000
  -47.4280   -5.9160  -26.3090 N   0  0  0  0  0  0  0  0  0  0  0  0
  -46.9100   -5.3260  -27.7080 S   0  0  0  0  0  0  0  0  0  0  0  0
  -47.9690   -5.5050  -28.6570 O   0  0  0  0  0  0  0  0  0  0  0  0
  -46.4190   -4.0030  -27.4530 O   0  0  0  0  0  0  0  0  0  0  0  0
  -45.5440   -6.3050  -28.2560 C   0  0  0  0  0  0  0  0  0  0  0  0
  -44.3550   -5.6830  -28.6140 C   0  0  0  0  0  0  0  0  0  0  0  0
  -43.2850   -6.4420  -29.0460 C   0  0  0  0  0  0  0  0  0  0  0  0
  -43.4020   -7.8190  -29.1200 C   0  0  0  0  0  0  0  0  0  0  0  0
  -44.5850   -8.4530  -28.7680 C   0  0  0  0  0  0  0  0  0  0  0  0
  -45.6710   -7.7080  -28.3250 C   0  0  0  0  0  0  0  0  0  0  0  0
  -46.9010   -8.2140  -27.9510 O   0  0  0  0  0  0  0  0  0  0  0  0
  -47.1500   -9.5300  -27.7790 C   0  0  0  0  0  0  0  0  0  0  0  0
  -46.7330  -10.2090  -28.8590 F   0  0  0  0  0  0  0  0  0  0  0  0
  -46.4030   -9.9840  -26.7640 F   0  0  0  0  0  0  0  0  0  0  0  0
  1  2  1  0
  2  3  2  0
  2  4  2  0
  2  5  1  0
  5  6  2  0
  6  7  1  0
  7  8  2  0
  8  9  1  0
  9 10  2  0
 10 11  1  0
 11 12  1  0
 12 13  1  0
 12 14  1  0
  5 10  1  0
M  END
$$$$
