TRIM21-x0455_B_302_1_TRIM21-x0031+B+401+1__LIG
     RDKit          3D

 10 10  0  0  0  0  0  0  0  0999 V2000
  -43.0480   -7.7110  -28.9520 C   0  0  0  0  0  0  0  0  0  0  0  0
  -43.5240   -6.4280  -29.6140 C   0  0  0  0  0  0  0  0  0  0  0  0
  -44.3960   -5.5880  -28.7170 C   0  0  0  0  0  0  0  0  0  0  0  0
  -45.6900   -5.4840  -28.8350 N   0  0  0  0  0  0  0  0  0  0  0  0
  -46.1910   -4.5920  -27.9050 C   0  0  0  0  0  0  0  0  0  0  0  0
  -45.3090   -4.0350  -27.0620 C   0  0  0  0  0  0  0  0  0  0  0  0
  -45.5380   -3.0230  -25.9790 C   0  0  0  0  0  0  0  0  0  0  0  0
  -45.6220   -3.6210  -24.6420 N   0  0  0  0  0  0  0  0  0  0  0  0
  -44.6820   -3.1780  -23.5990 C   0  0  0  0  0  0  0  0  0  0  0  0
  -43.7480   -4.6860  -27.3960 S   0  0  0  0  0  0  0  0  0  0  0  0
  1  2  1  0
  2  3  1  0
  3  4  2  0
  4  5  1  0
  5  6  2  0
  6  7  1  0
  7  8  1  0
  8  9  1  0
  6 10  1  0
  3 10  1  0
M  END
$$$$
