TRIM21-x0474_B_302_1_TRIM21-x0176+B+302+1__LIG
     RDKit          3D

 12 12  0  0  0  0  0  0  0  0999 V2000
  -24.6920  -26.2770  -18.4030 C   0  0  0  0  0  0  0  0  0  0  0  0
  -25.5540  -27.2960  -18.9810 N   0  0  0  0  0  0  0  0  0  0  0  0
  -26.0890  -27.0670  -20.4820 S   0  0  0  0  0  0  0  0  0  0  0  0
  -27.5120  -27.2210  -20.4490 O   0  0  0  0  0  0  0  0  0  0  0  0
  -25.5230  -25.8530  -20.9800 O   0  0  0  0  0  0  0  0  0  0  0  0
  -25.4400  -28.4150  -21.4440 C   0  0  0  0  0  0  0  0  0  0  0  0
  -26.0360  -28.3920  -22.8160 C   0  0  0  0  0  0  0  0  0  0  0  0
  -27.2610  -28.9360  -23.2260 C   0  0  0  0  0  0  0  0  0  0  0  0
  -27.3810  -28.6530  -24.5280 C   0  0  0  0  0  0  0  0  0  0  0  0
  -28.4050  -28.9310  -25.5580 C   0  0  0  0  0  0  0  0  0  0  0  0
  -26.3050  -27.9450  -24.9230 O   0  0  0  0  0  0  0  0  0  0  0  0
  -25.4500  -27.7800  -23.8030 N   0  0  0  0  0  0  0  0  0  0  0  0
  1  2  1  0
  2  3  1  0
  3  4  2  0
  3  5  2  0
  3  6  1  0
  6  7  1  0
  7  8  1  0
  8  9  2  0
  9 10  1  0
  9 11  1  0
 11 12  1  0
  7 12  2  0
M  END
$$$$
