TRIM21-x0501_B_302_1_TRIM21-x0031+B+401+1__LIG
     RDKit          3D

 19 20  0  0  0  0  0  0  0  0999 V2000
  -51.0320   -7.1560  -26.0950 O   0  0  0  0  0  0  0  0  0  0  0  0
  -49.9450   -7.0150  -25.5760 C   0  0  0  0  0  0  0  0  0  0  0  0
  -49.6630   -7.5010  -24.5020 O   0  0  0  0  0  0  0  0  0  0  0  0
  -48.9020   -6.1560  -26.3030 C   0  0  1  0  0  0  0  0  0  0  0  0
  -47.4450   -6.4020  -25.8980 C   0  0  0  0  0  0  0  0  0  0  0  0
  -46.4850   -5.4550  -26.6150 C   0  0  0  0  0  0  0  0  0  0  0  0
  -47.1610   -4.7390  -27.7660 C   0  0  0  0  0  0  0  0  0  0  0  0
  -47.9460   -5.7010  -28.5400 N   0  0  0  0  0  0  0  0  0  0  0  0
  -49.0660   -6.2930  -27.8130 C   0  0  0  0  0  0  0  0  0  0  0  0
  -47.7070   -6.1150  -29.7990 C   0  0  0  0  0  0  0  0  0  0  0  0
  -48.4650   -6.8980  -30.3630 O   0  0  0  0  0  0  0  0  0  0  0  0
  -46.4150   -5.6960  -30.4810 C   0  0  0  0  0  0  0  0  0  0  0  0
  -45.1980   -6.3110  -29.8450 C   0  0  0  0  0  0  0  0  0  0  0  0
  -45.1280   -7.6790  -29.6190 C   0  0  0  0  0  0  0  0  0  0  0  0
  -44.0200   -8.2500  -29.0140 C   0  0  0  0  0  0  0  0  0  0  0  0
  -42.9960   -7.4300  -28.6500 C   0  0  0  0  0  0  0  0  0  0  0  0
  -41.9050   -7.9760  -28.0530 F   0  0  0  0  0  0  0  0  0  0  0  0
  -43.0170   -6.0770  -28.8330 C   0  0  0  0  0  0  0  0  0  0  0  0
  -44.1390   -5.5240  -29.4250 C   0  0  0  0  0  0  0  0  0  0  0  0
  1  2  1  0
  2  3  2  0
  4  2  1  1
  4  5  1  0
  5  6  1  0
  6  7  1  0
  7  8  1  0
  8  9  1  0
  8 10  1  0
 10 11  2  0
 10 12  1  0
 12 13  1  0
 13 14  2  0
 14 15  1  0
 15 16  2  0
 16 17  1  0
 16 18  1  0
 18 19  2  0
  4  9  1  0
 13 19  1  0
M  CHG  1   1  -1
M  END
$$$$
