TRIM21-x0471_B_302_1_TRIM21-x0031+B+401+1__LIG
     RDKit          3D

 12 12  0  0  0  0  0  0  0  0999 V2000
  -46.1590   -3.9740  -25.1630 O   0  0  0  0  0  0  0  0  0  0  0  0
  -46.6370   -4.6800  -26.0730 C   0  0  0  0  0  0  0  0  0  0  0  0
  -47.1330   -5.8200  -25.8440 O   0  0  0  0  0  0  0  0  0  0  0  0
  -46.5680   -4.1450  -27.4910 C   0  0  0  0  0  0  0  0  0  0  0  0
  -46.5900   -5.2180  -28.3930 O   0  0  0  0  0  0  0  0  0  0  0  0
  -45.4280   -5.9730  -28.5150 C   0  0  0  0  0  0  0  0  0  0  0  0
  -44.1960   -5.3810  -28.6770 C   0  0  0  0  0  0  0  0  0  0  0  0
  -43.0670   -6.1670  -28.7940 C   0  0  0  0  0  0  0  0  0  0  0  0
  -43.1980   -7.5500  -28.7660 C   0  0  0  0  0  0  0  0  0  0  0  0
  -42.0880   -8.3340  -28.8690 F   0  0  0  0  0  0  0  0  0  0  0  0
  -44.4330   -8.1460  -28.6080 C   0  0  0  0  0  0  0  0  0  0  0  0
  -45.5520   -7.3450  -28.4820 C   0  0  0  0  0  0  0  0  0  0  0  0
  2  1  1  0
  3  2  1  0
  4  2  1  0
  5  4  1  0
  6  5  1  0
  7  6  2  0
  8  7  1  0
  9  8  2  0
 10  9  1  0
 11  9  1  0
 12 11  2  0
  6 12  1  0
M  CHG  1   1  -1
M  END
$$$$
