TRIM21-x0310_B_302_1_TRIM21-x0031+B+401+1__LIG
     RDKit          3D

 15 15  0  0  0  0  0  0  0  0999 V2000
  -45.7770   -9.9310  -30.6500 N   0  0  0  0  0  0  0  0  0  0  0  0
  -46.2800  -10.0670  -29.4300 C   0  0  0  0  0  0  0  0  0  0  0  0
  -47.1790  -11.4440  -29.0120 S   0  0  0  0  0  0  0  0  0  0  0  0
  -46.0710   -9.0900  -28.5290 N   0  0  0  0  0  0  0  0  0  0  0  0
  -45.2250   -7.9580  -28.6280 C   0  0  0  0  0  0  0  0  0  0  0  0
  -43.8670   -7.9990  -28.8970 C   0  0  0  0  0  0  0  0  0  0  0  0
  -43.1360   -6.8210  -28.9710 C   0  0  0  0  0  0  0  0  0  0  0  0
  -43.7490   -5.6060  -28.7700 C   0  0  0  0  0  0  0  0  0  0  0  0
  -45.1020   -5.5400  -28.4920 C   0  0  0  0  0  0  0  0  0  0  0  0
  -45.8490   -6.7130  -28.4090 C   0  0  0  0  0  0  0  0  0  0  0  0
  -47.2070   -6.7320  -28.1620 O   0  0  0  0  0  0  0  0  0  0  0  0
  -47.6720   -6.1920  -27.0350 C   0  0  0  0  0  0  0  0  0  0  0  0
  -47.5710   -4.8730  -27.0450 F   0  0  0  0  0  0  0  0  0  0  0  0
  -47.0280   -6.6280  -25.9660 F   0  0  0  0  0  0  0  0  0  0  0  0
  -48.9540   -6.4820  -26.8720 F   0  0  0  0  0  0  0  0  0  0  0  0
  1  2  1  0
  2  3  2  0
  2  4  1  0
  4  5  1  0
  5  6  2  0
  6  7  1  0
  7  8  2  0
  8  9  1  0
  9 10  2  0
 10 11  1  0
 11 12  1  0
 12 13  1  0
 12 14  1  0
 12 15  1  0
  5 10  1  0
M  END
$$$$
