TRIM21-x0549_B_201_1_TRIM21-x0031+B+401+1__LIG
     RDKit          3D

 13 13  0  0  0  0  0  0  0  0999 V2000
  -46.3500   -1.7600  -22.2300 C   0  0  0  0  0  0  0  0  0  0  0  0
  -45.1310   -2.2800  -23.3900 S   0  0  0  0  0  0  0  0  0  0  0  0
  -43.9620   -3.0130  -22.8950 O   0  0  0  0  0  0  0  0  0  0  0  0
  -44.5000   -1.1040  -24.0130 O   0  0  0  0  0  0  0  0  0  0  0  0
  -45.8760   -3.0990  -24.6450 N   0  0  0  0  0  0  0  0  0  0  0  0
  -45.0060   -3.8830  -25.5290 C   0  0  0  0  0  0  0  0  0  0  0  0
  -45.7670   -4.6170  -26.6510 C   0  0  0  0  0  0  0  0  0  0  0  0
  -44.8610   -5.6650  -27.3260 C   0  0  0  0  0  0  0  0  0  0  0  0
  -43.5640   -5.3200  -27.7410 C   0  0  0  0  0  0  0  0  0  0  0  0
  -42.7440   -6.2810  -28.3280 C   0  0  0  0  0  0  0  0  0  0  0  0
  -43.2100   -7.5870  -28.4930 C   0  0  0  0  0  0  0  0  0  0  0  0
  -44.4990   -7.9250  -28.0790 C   0  0  0  0  0  0  0  0  0  0  0  0
  -45.3250   -6.9690  -27.4820 C   0  0  0  0  0  0  0  0  0  0  0  0
  2  1  1  0
  3  2  2  0
  4  2  2  0
  5  2  1  0
  6  5  1  0
  7  6  1  0
  8  7  1  0
  9  8  2  0
 10  9  1  0
 11 10  2  0
 12 11  1  0
 13 12  2  0
  8 13  1  0
M  END
$$$$
