TRIM21-x0642_B_201_1_TRIM21-x0031+B+401+1__LIG
     RDKit          3D

 15 16  0  0  0  0  0  0  0  0999 V2000
  -45.8510   -2.7470  -22.8710 C   0  0  0  0  0  0  0  0  0  0  0  0
  -45.2520   -4.0440  -23.3120 C   0  0  0  0  0  0  0  0  0  0  0  0
  -44.1960   -4.4240  -22.8160 O   0  0  0  0  0  0  0  0  0  0  0  0
  -45.8970   -4.7740  -24.2520 N   0  0  0  0  0  0  0  0  0  0  0  0
  -47.1460   -4.3290  -24.8770 C   0  0  0  0  0  0  0  0  0  0  0  0
  -46.9270   -4.1420  -26.3610 C   0  0  0  0  0  0  0  0  0  0  0  0
  -46.4690   -5.4540  -26.9820 C   0  0  0  0  0  0  0  0  0  0  0  0
  -45.2400   -6.0810  -26.2830 C   0  0  0  0  0  0  0  0  0  0  0  0
  -45.4580   -6.0860  -24.7560 C   0  0  0  0  0  0  0  0  0  0  0  0
  -45.1650   -7.5240  -26.8220 C   0  0  0  0  0  0  0  0  0  0  0  0
  -44.6220   -7.7100  -28.2340 C   0  0  0  0  0  0  0  0  0  0  0  0
  -43.1130   -7.8910  -28.2940 C   0  0  0  0  0  0  0  0  0  0  0  0
  -42.3060   -6.6730  -27.9290 C   0  0  0  0  0  0  0  0  0  0  0  0
  -42.6540   -6.0930  -26.5900 C   0  0  0  0  0  0  0  0  0  0  0  0
  -43.9610   -5.2900  -26.5920 C   0  0  0  0  0  0  0  0  0  0  0  0
  1  2  1  0
  2  3  2  0
  2  4  1  0
  4  5  1  0
  5  6  1  0
  6  7  1  0
  7  8  1  0
  8  9  1  0
  8 10  1  0
 10 11  1  0
 11 12  1  0
 12 13  1  0
 13 14  1  0
 14 15  1  0
  4  9  1  0
  8 15  1  0
M  END
$$$$
