TRIM21-x0790_B_302_1_TRIM21-x0031+B+401+1__LIG
     RDKit          3D

 11 11  0  0  0  0  0  0  0  0999 V2000
  -48.1440   -5.8850  -29.6760 C   0  0  0  0  0  0  0  0  0  0  0  0
  -48.2030   -6.6660  -28.4090 C   0  0  0  0  0  0  0  0  0  0  0  0
  -47.0190   -6.4080  -27.4770 C   0  0  2  0  0  0  0  0  0  0  0  0
  -47.2020   -5.0720  -26.8770 N   0  0  0  0  0  0  0  0  0  0  0  0
  -46.5520   -4.9060  -25.5790 C   0  0  0  0  0  0  0  0  0  0  0  0
  -45.6860   -6.6140  -28.1850 C   0  0  0  0  0  0  0  0  0  0  0  0
  -44.8450   -5.5570  -28.4920 C   0  0  0  0  0  0  0  0  0  0  0  0
  -43.6450   -5.8180  -29.1210 C   0  0  0  0  0  0  0  0  0  0  0  0
  -43.2430   -7.0410  -29.4680 N   0  0  0  0  0  0  0  0  0  0  0  0
  -44.0530   -8.0570  -29.1610 C   0  0  0  0  0  0  0  0  0  0  0  0
  -45.2650   -7.8920  -28.5260 C   0  0  0  0  0  0  0  0  0  0  0  0
  1  2  1  0
  3  2  1  6
  3  4  1  0
  4  5  1  0
  3  6  1  0
  6  7  2  0
  7  8  1  0
  8  9  2  0
  9 10  1  0
 10 11  2  0
  6 11  1  0
M  END
$$$$
