TRIM21-x0215_B_401_1_TRIM21-x0176+B+302+1__LIG
     RDKit          3D

 15 16  0  0  0  0  0  0  0  0999 V2000
  -27.3220  -27.8820  -20.4100 O   0  0  0  0  0  0  0  0  0  0  0  0
  -26.0950  -27.9580  -20.4090 C   0  0  0  0  0  0  0  0  0  0  0  0
  -25.3600  -28.6610  -21.5340 C   0  0  0  0  0  0  0  0  0  0  0  0
  -26.1730  -28.7990  -22.7090 N   0  0  0  0  0  0  0  0  0  0  0  0
  -27.0990  -29.8990  -22.9060 C   0  0  0  0  0  0  0  0  0  0  0  0
  -27.9170  -29.5010  -24.1340 C   0  0  0  0  0  0  0  0  0  0  0  0
  -27.1760  -28.3640  -24.7550 C   0  0  0  0  0  0  0  0  0  0  0  0
  -26.1880  -27.9000  -23.6960 C   0  0  0  0  0  0  0  0  0  0  0  0
  -25.5010  -26.8820  -23.7100 O   0  0  0  0  0  0  0  0  0  0  0  0
  -25.3120  -27.4500  -19.4080 N   0  0  0  0  0  0  0  0  0  0  0  0
  -25.8110  -26.8950  -18.2410 C   0  0  0  0  0  0  0  0  0  0  0  0
  -25.0220  -26.3540  -17.3490 N   0  0  0  0  0  0  0  0  0  0  0  0
  -25.7650  -25.9500  -16.2600 C   0  0  0  0  0  0  0  0  0  0  0  0
  -27.0850  -26.1720  -16.3340 C   0  0  0  0  0  0  0  0  0  0  0  0
  -27.4980  -26.8440  -17.8600 S   0  0  0  0  0  0  0  0  0  0  0  0
  1  2  2  0
  2  3  1  0
  3  4  1  0
  4  5  1  0
  5  6  1  0
  6  7  1  0
  7  8  1  0
  8  9  2  0
  2 10  1  0
 10 11  1  0
 11 12  2  0
 12 13  1  0
 13 14  2  0
 14 15  1  0
  4  8  1  0
 11 15  1  0
M  END
$$$$
