TRIM21-x0743_B_201_1_TRIM21-x0031+B+401+1__LIG
     RDKit          3D

 15 15  0  0  0  0  0  0  0  0999 V2000
  -42.4940   -6.4430  -27.4210 C   0  0  0  0  0  0  0  0  0  0  0  0
  -43.2910   -5.5170  -28.2970 C   0  0  0  0  0  0  0  0  0  0  0  0
  -44.7390   -5.9400  -28.3240 C   0  0  0  0  0  0  0  0  0  0  0  0
  -45.0600   -6.9710  -28.9050 O   0  0  0  0  0  0  0  0  0  0  0  0
  -45.6470   -5.2430  -27.6160 N   0  0  0  0  0  0  0  0  0  0  0  0
  -47.0820   -5.5190  -27.6520 C   0  0  0  0  0  0  0  0  0  0  0  0
  -47.5990   -5.8510  -26.2630 C   0  0  0  0  0  0  0  0  0  0  0  0
  -47.3920   -4.6820  -25.2990 C   0  0  0  0  0  0  0  0  0  0  0  0
  -46.4400   -3.6400  -25.8770 C   0  0  2  0  0  0  0  0  0  0  0  0
  -45.2510   -4.2430  -26.6280 C   0  0  0  0  0  0  0  0  0  0  0  0
  -45.8800   -2.7050  -24.8870 N   0  0  0  0  0  0  0  0  0  0  0  0
  -45.3720   -2.7160  -23.3020 S   0  0  0  0  0  0  0  0  0  0  0  0
  -44.4590   -3.8010  -23.0340 O   0  0  0  0  0  0  0  0  0  0  0  0
  -44.9930   -1.3730  -23.0010 O   0  0  0  0  0  0  0  0  0  0  0  0
  -46.7950   -3.0200  -22.3340 C   0  0  0  0  0  0  0  0  0  0  0  0
  1  2  1  0
  2  3  1  0
  3  4  2  0
  3  5  1  0
  5  6  1  0
  6  7  1  0
  7  8  1  0
  8  9  1  0
  9 10  1  0
  9 11  1  1
 11 12  1  0
 12 13  2  0
 12 14  2  0
 12 15  1  0
  5 10  1  0
M  END
$$$$
