TRIM21-x0609_B_302_1_TRIM21-x0046+B+302+1__LIG
     RDKit          3D

 13 13  0  0  0  0  0  0  0  0999 V2000
  -49.0740    2.3440  -22.5950 C   0  0  0  0  0  0  0  0  0  0  0  0
  -49.8840    3.3860  -23.2960 C   0  0  0  0  0  0  0  0  0  0  0  0
  -50.9070    3.8440  -22.7780 O   0  0  0  0  0  0  0  0  0  0  0  0
  -49.4420    3.7540  -24.5150 N   0  0  0  0  0  0  0  0  0  0  0  0
  -49.8980    4.9480  -25.2250 C   0  0  0  0  0  0  0  0  0  0  0  0
  -49.3190    5.1020  -26.6370 C   0  0  0  0  0  0  0  0  0  0  0  0
  -50.1230    6.0830  -27.4730 C   0  0  0  0  0  0  0  0  0  0  0  0
  -51.2390    5.6180  -28.1630 C   0  0  0  0  0  0  0  0  0  0  0  0
  -52.0510    6.4660  -28.8860 C   0  0  0  0  0  0  0  0  0  0  0  0
  -51.7480    7.8060  -28.9550 C   0  0  0  0  0  0  0  0  0  0  0  0
  -50.6340    8.2900  -28.2980 C   0  0  0  0  0  0  0  0  0  0  0  0
  -49.8150    7.4600  -27.5490 C   0  0  0  0  0  0  0  0  0  0  0  0
  -48.6150    8.0850  -26.8520 C   0  0  0  0  0  0  0  0  0  0  0  0
  1  2  1  0
  2  3  2  0
  2  4  1  0
  4  5  1  0
  5  6  1  0
  6  7  1  0
  7  8  2  0
  8  9  1  0
  9 10  2  0
 10 11  1  0
 11 12  2  0
 12 13  1  0
  7 12  1  0
M  END
$$$$
