TRIM21-x0718_B_302_1_TRIM21-x0031+B+401+1__LIG
     RDKit          3D

 14 14  0  0  0  0  0  0  0  0999 V2000
  -46.2910   -5.5390  -24.8130 C   0  0  0  0  0  0  0  0  0  0  0  0
  -45.5580   -4.7040  -25.8490 C   0  0  1  0  0  0  0  0  0  0  0  0
  -45.0680   -3.4640  -25.2040 N   0  0  0  0  0  0  0  0  0  0  0  0
  -44.9690   -3.2560  -23.5980 S   0  0  0  0  0  0  0  0  0  0  0  0
  -46.3030   -3.0730  -23.0990 O   0  0  0  0  0  0  0  0  0  0  0  0
  -44.1490   -4.3020  -23.0610 O   0  0  0  0  0  0  0  0  0  0  0  0
  -44.1160   -1.7440  -23.3620 C   0  0  0  0  0  0  0  0  0  0  0  0
  -44.4620   -5.4800  -26.6350 C   0  0  0  0  0  0  0  0  0  0  0  0
  -43.3810   -4.8170  -27.2160 C   0  0  0  0  0  0  0  0  0  0  0  0
  -42.4120   -5.5070  -27.9250 C   0  0  0  0  0  0  0  0  0  0  0  0
  -42.5040   -6.8700  -28.0820 C   0  0  0  0  0  0  0  0  0  0  0  0
  -43.5590   -7.5530  -27.5310 C   0  0  0  0  0  0  0  0  0  0  0  0
  -44.5280   -6.8590  -26.8240 C   0  0  0  0  0  0  0  0  0  0  0  0
  -45.8470   -7.7790  -26.1500 Cl  0  0  0  0  0  0  0  0  0  0  0  0
  2  1  1  1
  2  3  1  0
  3  4  1  0
  4  5  2  0
  4  6  2  0
  4  7  1  0
  2  8  1  0
  8  9  2  0
  9 10  1  0
 10 11  2  0
 11 12  1  0
 12 13  2  0
 13 14  1  0
  8 13  1  0
M  END
$$$$
