TRIM21-x0472_B_201_1_TRIM21-x0031+B+401+1__LIG
     RDKit          3D

 14 15  0  0  0  0  0  0  0  0999 V2000
  -45.9500   -2.1170  -22.5940 C   0  0  0  0  0  0  0  0  0  0  0  0
  -45.4060   -3.3000  -23.3400 C   0  0  0  0  0  0  0  0  0  0  0  0
  -44.4690   -3.9720  -22.9070 O   0  0  0  0  0  0  0  0  0  0  0  0
  -45.9990   -3.5780  -24.5070 N   0  0  0  0  0  0  0  0  0  0  0  0
  -45.7070   -4.7680  -25.2970 C   0  0  1  0  0  0  0  0  0  0  0  0
  -46.8260   -5.0710  -26.3020 C   0  0  0  0  0  0  0  0  0  0  0  0
  -46.4810   -6.2100  -27.1360 N   0  0  0  0  0  0  0  0  0  0  0  0
  -45.1910   -6.4720  -27.5320 C   0  0  0  0  0  0  0  0  0  0  0  0
  -44.9340   -7.5330  -28.4140 C   0  0  0  0  0  0  0  0  0  0  0  0
  -43.6350   -7.8000  -28.7990 C   0  0  0  0  0  0  0  0  0  0  0  0
  -42.5830   -7.0510  -28.3100 C   0  0  0  0  0  0  0  0  0  0  0  0
  -42.8370   -6.0260  -27.4150 C   0  0  0  0  0  0  0  0  0  0  0  0
  -44.1350   -5.7220  -27.0040 C   0  0  0  0  0  0  0  0  0  0  0  0
  -44.4080   -4.6040  -26.0380 C   0  0  0  0  0  0  0  0  0  0  0  0
  1  2  1  0
  2  3  2  0
  2  4  1  0
  5  4  1  6
  5  6  1  0
  6  7  1  0
  7  8  1  0
  8  9  2  0
  9 10  1  0
 10 11  2  0
 11 12  1  0
 12 13  2  0
 13 14  1  0
  5 14  1  0
  8 13  1  0
M  END
$$$$
