TRIM21-x0409_B_302_1_TRIM21-x0031+B+401+1__LIG
     RDKit          3D

 13 14  0  0  0  0  0  0  0  0999 V2000
  -46.5420  -10.9050  -30.3570 C   0  0  0  0  0  0  0  0  0  0  0  0
  -46.9950  -10.5740  -28.9680 C   0  0  0  0  0  0  0  0  0  0  0  0
  -47.8050  -11.2780  -28.3690 O   0  0  0  0  0  0  0  0  0  0  0  0
  -46.4800   -9.4660  -28.3860 N   0  0  0  0  0  0  0  0  0  0  0  0
  -45.1820   -8.8500  -28.7160 C   0  0  0  0  0  0  0  0  0  0  0  0
  -45.4340   -7.4230  -28.3200 C   0  0  0  0  0  0  0  0  0  0  0  0
  -44.6920   -6.2890  -28.6240 C   0  0  0  0  0  0  0  0  0  0  0  0
  -45.1220   -5.0620  -28.1600 C   0  0  0  0  0  0  0  0  0  0  0  0
  -46.2870   -4.9590  -27.3950 C   0  0  0  0  0  0  0  0  0  0  0  0
  -46.7100   -3.7150  -26.9340 N   0  0  0  0  0  0  0  0  0  0  0  0
  -47.0320   -6.1010  -27.0900 C   0  0  0  0  0  0  0  0  0  0  0  0
  -46.5950   -7.3310  -27.5590 C   0  0  0  0  0  0  0  0  0  0  0  0
  -47.2110   -8.6850  -27.3730 C   0  0  0  0  0  0  0  0  0  0  0  0
  1  2  1  0
  2  3  2  0
  2  4  1  0
  4  5  1  0
  5  6  1  0
  6  7  2  0
  7  8  1  0
  8  9  2  0
  9 10  1  0
  9 11  1  0
 11 12  2  0
 12 13  1  0
  4 13  1  0
  6 12  1  0
M  END
$$$$
