TRIM21-x0306_B_401_1_TRIM21-x0031+B+401+1__LIG
     RDKit          3D

 15 16  0  0  0  0  0  0  0  0999 V2000
  -46.4090   -2.3440  -23.0580 C   0  0  0  0  0  0  0  0  0  0  0  0
  -46.1810   -3.5960  -23.7660 N   0  0  0  0  0  0  0  0  0  0  0  0
  -47.2640   -4.0200  -24.6470 C   0  0  0  0  0  0  0  0  0  0  0  0
  -45.0660   -4.3210  -23.6030 C   0  0  0  0  0  0  0  0  0  0  0  0
  -44.3300   -4.1610  -22.6320 O   0  0  0  0  0  0  0  0  0  0  0  0
  -44.6820   -5.3200  -24.6610 C   0  0  0  0  0  0  0  0  0  0  0  0
  -44.4580   -6.6590  -24.3150 C   0  0  0  0  0  0  0  0  0  0  0  0
  -44.0780   -7.5880  -25.2610 C   0  0  0  0  0  0  0  0  0  0  0  0
  -43.8990   -7.1940  -26.5950 C   0  0  0  0  0  0  0  0  0  0  0  0
  -43.5250   -8.1280  -27.5320 N   0  0  0  0  0  0  0  0  0  0  0  0
  -43.1860   -7.7780  -28.9000 C   0  0  0  0  0  0  0  0  0  0  0  0
  -42.8310   -6.3230  -29.0210 C   0  0  0  0  0  0  0  0  0  0  0  0
  -43.9230   -5.4680  -28.4030 C   0  0  0  0  0  0  0  0  0  0  0  0
  -44.1230   -5.8670  -26.9700 C   0  0  0  0  0  0  0  0  0  0  0  0
  -44.5010   -4.9410  -25.9900 C   0  0  0  0  0  0  0  0  0  0  0  0
  1  2  1  0
  2  3  1  0
  2  4  1  0
  4  5  2  0
  4  6  1  0
  6  7  2  0
  7  8  1  0
  8  9  2  0
  9 10  1  0
 10 11  1  0
 11 12  1  0
 12 13  1  0
 13 14  1  0
 14 15  2  0
  6 15  1  0
  9 14  1  0
M  END
$$$$
