TRIM21-x0533_B_301_1_TRIM21-x0031+B+401+1__LIG
     RDKit          3D

 14 15  0  0  0  0  0  0  0  0999 V2000
  -49.2200  -10.6960  -32.8870 C   0  0  0  0  0  0  0  0  0  0  0  0
  -48.2360  -11.1300  -31.8950 N   0  0  0  0  0  0  0  0  0  0  0  0
  -46.9890  -11.5830  -32.5520 C   0  0  0  0  0  0  0  0  0  0  0  0
  -45.7900  -10.8320  -32.0420 C   0  0  0  0  0  0  0  0  0  0  0  0
  -45.6960  -10.8730  -30.6230 O   0  0  0  0  0  0  0  0  0  0  0  0
  -46.9050  -10.5530  -29.9390 C   0  0  1  0  0  0  0  0  0  0  0  0
  -46.6190   -9.4930  -28.8900 C   0  0  0  0  0  0  0  0  0  0  0  0
  -45.2000   -9.2070  -28.7100 N   0  0  0  0  0  0  0  0  0  0  0  0
  -44.6500   -7.9830  -28.8440 C   0  0  0  0  0  0  0  0  0  0  0  0
  -45.3350   -6.8690  -29.0220 N   0  0  0  0  0  0  0  0  0  0  0  0
  -44.4820   -5.7830  -28.9380 C   0  0  0  0  0  0  0  0  0  0  0  0
  -43.1760   -6.0740  -29.0200 C   0  0  0  0  0  0  0  0  0  0  0  0
  -42.9220   -7.7620  -28.7620 S   0  0  0  0  0  0  0  0  0  0  0  0
  -47.9690  -10.0770  -30.9110 C   0  0  0  0  0  0  0  0  0  0  0  0
  1  2  1  0
  2  3  1  0
  3  4  1  0
  4  5  1  0
  5  6  1  0
  6  7  1  1
  7  8  1  0
  8  9  1  0
  9 10  2  0
 10 11  1  0
 11 12  2  0
 12 13  1  0
  6 14  1  0
  2 14  1  0
  9 13  1  0
M  END
$$$$
