TRIM21-x0354_B_302_1_TRIM21-x0031+B+401+1__LIG
     RDKit          3D

 15 16  0  0  0  0  0  0  0  0999 V2000
  -48.2890   -6.2960  -30.4910 C   0  0  0  0  0  0  0  0  0  0  0  0
  -48.3510   -6.1820  -29.0150 C   0  0  0  0  0  0  0  0  0  0  0  0
  -49.3120   -6.6620  -28.2470 N   0  0  0  0  0  0  0  0  0  0  0  0
  -48.9560   -6.3360  -26.9530 C   0  0  0  0  0  0  0  0  0  0  0  0
  -47.7790   -5.6750  -26.9410 C   0  0  0  0  0  0  0  0  0  0  0  0
  -47.3860   -5.5610  -28.2600 N   0  0  0  0  0  0  0  0  0  0  0  0
  -46.1460   -4.9360  -28.6980 C   0  0  0  0  0  0  0  0  0  0  0  0
  -44.9970   -5.9110  -28.7290 C   0  0  0  0  0  0  0  0  0  0  0  0
  -45.2030   -7.2500  -29.0260 C   0  0  0  0  0  0  0  0  0  0  0  0
  -44.1440   -8.1400  -29.0500 C   0  0  0  0  0  0  0  0  0  0  0  0
  -42.8680   -7.7070  -28.7660 C   0  0  0  0  0  0  0  0  0  0  0  0
  -42.6530   -6.3690  -28.4720 C   0  0  0  0  0  0  0  0  0  0  0  0
  -41.3380   -5.8980  -28.1680 C   0  0  0  0  0  0  0  0  0  0  0  0
  -40.2830   -5.4940  -27.9630 N   0  0  0  0  0  0  0  0  0  0  0  0
  -43.7160   -5.4780  -28.4550 C   0  0  0  0  0  0  0  0  0  0  0  0
  1  2  1  0
  2  3  2  0
  3  4  1  0
  4  5  2  0
  5  6  1  0
  6  7  1  0
  7  8  1  0
  8  9  2  0
  9 10  1  0
 10 11  2  0
 11 12  1  0
 12 13  1  0
 13 14  3  0
 12 15  2  0
  2  6  1  0
  8 15  1  0
M  END
$$$$
