TRIM21-x0594_B_501_1_TRIM21-x0031+B+401+1__LIG
     RDKit          3D

 14 14  0  0  0  0  0  0  0  0999 V2000
  -42.4020   -6.2540  -28.4540 C   0  0  0  0  0  0  0  0  0  0  0  0
  -43.7750   -6.4240  -27.9670 C   0  0  0  0  0  0  0  0  0  0  0  0
  -44.9180   -6.5560  -27.5220 C   0  0  0  0  0  0  0  0  0  0  0  0
  -46.2710   -6.6080  -26.9650 C   0  0  0  0  0  0  0  0  0  0  0  0
  -46.9170   -5.2950  -27.0030 N   0  0  0  0  0  0  0  0  0  0  0  0
  -48.1200   -5.0420  -27.7980 C   0  0  0  0  0  0  0  0  0  0  0  0
  -46.6900   -4.3490  -25.8780 C   0  0  0  0  0  0  0  0  0  0  0  0
  -45.2780   -3.7780  -25.9300 C   0  0  0  0  0  0  0  0  0  0  0  0
  -45.1280   -2.5710  -25.0210 C   0  0  0  0  0  0  0  0  0  0  0  0
  -45.3690   -3.0670  -23.3360 S   0  0  0  0  0  0  0  0  0  0  0  0
  -45.3890   -1.8940  -22.4950 O   0  0  0  0  0  0  0  0  0  0  0  0
  -44.4200   -4.0980  -23.0130 O   0  0  0  0  0  0  0  0  0  0  0  0
  -47.0120   -3.7350  -23.4740 C   0  0  0  0  0  0  0  0  0  0  0  0
  -47.0190   -4.8740  -24.4830 C   0  0  0  0  0  0  0  0  0  0  0  0
  1  2  1  0
  2  3  3  0
  3  4  1  0
  4  5  1  0
  5  6  1  0
  5  7  1  0
  7  8  1  0
  8  9  1  0
  9 10  1  0
 10 11  2  0
 10 12  2  0
 10 13  1  0
 13 14  1  0
  7 14  1  0
M  END
$$$$
