TRIM21-x0322_B_201_1_TRIM21-x0031+B+401+1__LIG
     RDKit          3D

 14 15  0  0  0  0  0  0  0  0999 V2000
  -44.6810   -0.6070  -22.8410 O   0  0  0  0  0  0  0  0  0  0  0  0
  -45.6080   -1.6800  -22.8670 C   0  0  0  0  0  0  0  0  0  0  0  0
  -45.0340   -2.9120  -23.4960 C   0  0  0  0  0  0  0  0  0  0  0  0
  -44.9950   -3.2880  -24.8060 C   0  0  0  0  0  0  0  0  0  0  0  0
  -44.3640   -4.4860  -24.8160 N   0  0  0  0  0  0  0  0  0  0  0  0
  -44.0320   -4.8510  -23.5580 N   0  0  0  0  0  0  0  0  0  0  0  0
  -44.4330   -3.8880  -22.7620 N   0  0  0  0  0  0  0  0  0  0  0  0
  -44.0670   -5.3440  -25.9230 C   0  0  0  0  0  0  0  0  0  0  0  0
  -44.4580   -6.6710  -25.8790 C   0  0  0  0  0  0  0  0  0  0  0  0
  -44.1850   -7.5020  -26.9520 C   0  0  0  0  0  0  0  0  0  0  0  0
  -43.5340   -6.9970  -28.0540 C   0  0  0  0  0  0  0  0  0  0  0  0
  -43.2030   -8.0470  -29.4040 Cl  0  0  0  0  0  0  0  0  0  0  0  0
  -43.1500   -5.6740  -28.1130 C   0  0  0  0  0  0  0  0  0  0  0  0
  -43.4180   -4.8400  -27.0380 C   0  0  0  0  0  0  0  0  0  0  0  0
  1  2  1  0
  2  3  1  0
  3  4  2  0
  4  5  1  0
  5  6  1  0
  6  7  2  0
  5  8  1  0
  8  9  2  0
  9 10  1  0
 10 11  2  0
 11 12  1  0
 11 13  1  0
 13 14  2  0
  3  7  1  0
  8 14  1  0
M  END
$$$$
